
This summary file was generated by TurbSim on 20-Jun-2022 at 12:15:07.


Runtime Options:

    101112  Random seed #1
    181920  Random seed #2
         F  Output binary HH turbulence parameters?
         F  Output formatted turbulence parameters?
         F  Output AeroDyn HH files?
         T  Output AeroDyn FF files?
         T  Output BLADED FF files?
         T  Output tower data?
         F  Output formatted FF files?
         F  Output coherent turbulence time step file?
         T  Clockwise rotation when looking downwind?
 0 -  NONE  IEC turbulence models scaled to exact specified standard deviation


Turbine/Model Specifications:

        31  Vertical grid-point matrix dimension
        31  Horizontal grid-point matrix dimension
     0.050  Time step [seconds]
   630.000  Analysis time [seconds]
   630.000  Usable output time [seconds]
    90.000  Hub height [m]
   145.000  Grid height [m]
   145.000  Grid width [m]
     0.000  Vertical flow angle [degrees]
     0.000  Horizontal flow angle [degrees]


Meteorological Boundary Conditions:

    IECKAI  IEC Kaimal spectral model
         1  IEC standard: IEC 61400-1 Ed. 3: 2005
         B  IEC turbulence characteristic
       NTM  IEC Normal Turbulence Model
       N/A  IEC Extreme Turbulence Model (ETM) "c" parameter [m/s]
       PL   Wind profile type
    90.000  Reference height [m]
    12.000  Reference wind speed [m/s]
       N/A  Jet height [m]
     0.200  Power law exponent
     0.030  Surface roughness length [m]


Non-IEC Meteorological Boundary Conditions:

       N/A  Site latitude [degrees]
       N/A  Gradient Richardson number
       N/A  Friction or shear velocity [m/s]
       N/A  Mixing layer depth [m]
       N/A  Mean hub u'w' Reynolds stress
       N/A  Mean hub u'v' Reynolds stress
       N/A  Mean hub v'w' Reynolds stress


Spatial Coherence Models:

       IEC  u-component coherence model
      NONE  v-component coherence model
      NONE  w-component coherence model
(   12.000, 0.353E-03)  u-component coherence parameters
                   N/A  v-component coherence parameters
                   N/A  w-component coherence parameters
       N/A  Coherence exponent


You have requested that the following file(s) be generated:

   TS_wind.bts (AeroDyn/TurbSim full-field wind file)
   TS_wind.wnd (AeroDyn/BLADED full-field wnd file)
   TS_wind.twr (binary tower file)


Turbulence Simulation Scaling Parameter Summary:

   Turbulence model used                            =  IEC Kaimal
   Turbulence characteristic                        =  B
   IEC turbulence type                              =  Normal Turbulence Model
   IEC standard                                     =  IEC 61400-1 Ed. 3: 2005
   Mean wind speed at hub height                    =   12.000 m/s
   Expected value of turbulence intensity at 15 m/s =   14.000%
   Characteristic value of standard deviation       =    2.044 m/s
   Turbulence scale                                 =   42.000 m
   u-component integral scale                       =  340.200 m
   Coherency scale                                  =  340.200 m
   Characteristic value of hub turbulence intensity =   17.033%
   Gradient Richardson number                       =    0.000

   Wind profile type                                =  Power law
   Power law exponent                               =    0.200
   Mean shear across rotor disk                     =    0.033 (m/s)/m
   Assumed rotor diameter                           =  145.000 m
   Surface roughness length                         =    0.030 m

   Nyquist frequency of turbulent wind field        =   10.000 Hz

   Number of time steps in the FFT                  =    12600
   Number of time steps output                      =    12600
   Number of points simulated                       =      964


Mean Flow Angles:

   Vertical   =   0.0 degrees
   Horizontal =   0.0 degrees

Mean Wind Speed Profile:

   Height    Wind Speed   Horizontal Angle  Vertical Angle  U-comp (X)   V-comp (Y)   W-comp (Z)
     (m)        (m/s)         (degrees)       (degrees)       (m/s)        (m/s)        (m/s)   
   ------    ----------   ----------------  --------------  ----------   ----------   ----------
    162.5       13.51            0.00            0.00         13.51         0.00         0.00
    157.7       13.42            0.00            0.00         13.42         0.00         0.00
    152.8       13.34            0.00            0.00         13.34         0.00         0.00
    148.0       13.26            0.00            0.00         13.26         0.00         0.00
    143.2       13.17            0.00            0.00         13.17         0.00         0.00
    138.3       13.08            0.00            0.00         13.08         0.00         0.00
    133.5       12.98            0.00            0.00         12.98         0.00         0.00
    128.7       12.89            0.00            0.00         12.89         0.00         0.00
    123.8       12.79            0.00            0.00         12.79         0.00         0.00
    119.0       12.69            0.00            0.00         12.69         0.00         0.00
    114.2       12.58            0.00            0.00         12.58         0.00         0.00
    109.3       12.48            0.00            0.00         12.48         0.00         0.00
    104.5       12.36            0.00            0.00         12.36         0.00         0.00
     99.7       12.25            0.00            0.00         12.25         0.00         0.00
     94.8       12.13            0.00            0.00         12.13         0.00         0.00
     90.0       12.00            0.00            0.00         12.00         0.00         0.00
     85.2       11.87            0.00            0.00         11.87         0.00         0.00
     80.3       11.73            0.00            0.00         11.73         0.00         0.00
     75.5       11.59            0.00            0.00         11.59         0.00         0.00
     70.7       11.43            0.00            0.00         11.43         0.00         0.00
     65.8       11.27            0.00            0.00         11.27         0.00         0.00
     61.0       11.10            0.00            0.00         11.10         0.00         0.00
     56.2       10.92            0.00            0.00         10.92         0.00         0.00
     51.3       10.73            0.00            0.00         10.73         0.00         0.00
     46.5       10.52            0.00            0.00         10.52         0.00         0.00
     41.7       10.29            0.00            0.00         10.29         0.00         0.00
     36.8       10.04            0.00            0.00         10.04         0.00         0.00
     32.0        9.76            0.00            0.00          9.76         0.00         0.00
     27.2        9.44            0.00            0.00          9.44         0.00         0.00
     22.3        9.08            0.00            0.00          9.08         0.00         0.00
     17.5        8.65            0.00            0.00          8.65         0.00         0.00
     12.7        8.11            0.00            0.00          8.11         0.00         0.00
      7.8        7.36            0.00            0.00          7.36         0.00         0.00
      3.0        6.08            0.00            0.00          6.08         0.00         0.00


Harvested Random Seeds after Generation of the Random Numbers:

   -413525229 Harvested seed # 1
    744460276 Harvested seed # 2
    956280660 Harvested seed # 3
    557858338 Harvested seed # 4
  -1571306660 Harvested seed # 5
   1804386814 Harvested seed # 6
   -890646075 Harvested seed # 7
  -2093895357 Harvested seed # 8


Hub-Height Simulated Turbulence Statistical Summary:

   Type of Wind        Min (m/s)   Mean (m/s)    Max (m/s)  Sigma (m/s)       TI (%)
   ----------------    ---------   ----------    ---------  -----------       ------
   Longitudinal (u)         5.13        12.00        17.84        1.841       15.338
   Lateral (v)             -5.21         0.00         5.73        1.599       13.325
   Vertical (w)            -3.85        -0.00         4.10        0.999        8.325
   U component              5.13        12.00        17.84        1.841       15.338
   V component             -5.21         0.00         5.73        1.599       13.325
   W component             -3.85        -0.00         4.10        0.999        8.325
   Horizontal (U&V)         5.21        12.11        17.87        1.827       15.087
   Total                    5.25        12.15        17.92        1.819       14.972

                       Min Reynolds     Mean Reynolds    Max Reynolds    Correlation
   Product             Stress (m/s)^2   Stress (m/s)^2   Stress (m/s)^2  Coefficient
   ----------------    --------------   --------------   --------------  -----------
   u'w'                    -12.065             0.088            21.393         0.048
   u'v'                    -14.262             0.270            21.599         0.092
   v'w'                     -7.799             0.087            10.200         0.054


   Friction Velocity (Ustar)  =      0.296 m/s
   Maximum Instantaneous TKE  =     24.576 (m/s)^2
   Maximum Instantaneous CTKE =     11.310 (m/s)^2


Grid Point Variance Summary:

   Y-coord  -72.50  -67.67  -62.83  -58.00  -53.17  -48.33  -43.50  -38.67  -33.83  -29.00  -24.17  -19.33  -14.50   -9.67   -4.83    0.00    4.83    9.67   14.50   19.33   24.17   29.00   33.83   38.67   43.50   48.33   53.17   58.00   62.83   67.67   72.50

   Height   Standard deviation at grid points for the u component:
   162.50    2.070   2.159   2.074   2.098   2.086   2.094   2.147   2.001   2.024   1.971   1.974   1.968   1.937   1.985   1.967   2.013   2.050   2.100   2.050   2.026   2.013   2.070   2.096   1.890   1.881   1.923   2.034   2.062   2.110   1.997   1.980
   157.67    1.994   1.979   2.056   2.108   2.204   2.181   2.149   2.096   2.004   2.128   2.124   2.062   2.015   2.046   1.931   1.933   2.005   1.989   2.039   1.982   2.064   2.154   2.069   2.009   1.848   1.848   1.921   2.137   2.092   2.071   2.170
   152.83    2.004   2.042   2.036   2.079   2.119   2.118   1.990   2.091   2.019   2.008   2.113   2.020   2.082   2.083   2.013   2.031   2.152   2.129   2.072   2.066   2.060   2.062   1.990   1.949   1.954   2.050   2.079   2.211   2.175   2.141   2.152
   148.00    2.012   2.089   2.072   2.149   1.970   1.973   1.968   1.948   1.929   1.961   1.952   2.029   1.957   2.086   2.158   2.116   2.102   2.062   2.099   2.110   2.041   2.140   2.084   1.958   1.936   2.026   2.066   2.150   2.240   2.164   2.187
   143.17    2.097   1.997   2.027   2.095   1.985   1.953   1.941   1.910   1.898   1.942   2.034   2.008   2.108   2.138   2.137   2.178   2.111   2.074   2.019   2.114   2.118   2.118   2.049   1.926   2.044   2.052   2.112   2.090   2.016   2.172   2.103
   138.33    2.187   2.138   2.055   2.062   2.073   2.083   1.872   1.884   1.914   1.889   2.010   2.050   2.127   2.079   2.129   2.029   2.069   2.087   2.083   2.068   2.054   2.045   1.993   2.044   2.142   2.066   2.043   2.004   1.991   2.109   2.041
   133.50    2.117   2.097   2.157   2.216   2.085   2.126   2.002   1.849   1.891   2.012   2.122   2.122   2.120   2.069   2.161   2.134   2.118   2.171   2.103   2.103   1.997   2.001   2.039   2.042   2.096   2.008   1.940   2.018   1.988   2.074   2.028
   128.67    2.087   2.161   2.208   2.284   2.195   2.096   1.965   1.883   1.860   2.032   2.010   2.031   2.007   2.045   2.030   2.152   2.129   2.037   2.074   2.105   2.036   2.024   2.030   1.995   1.930   1.878   1.981   2.058   2.129   2.088   2.079
   123.83    2.029   2.150   2.212   2.180   2.137   2.000   2.035   1.971   2.053   1.991   2.058   1.967   2.092   1.946   2.018   1.934   1.924   1.949   1.982   1.965   2.009   2.031   1.969   2.025   1.988   1.935   1.952   2.055   2.080   2.065   2.157
   119.00    2.111   2.199   2.211   2.156   2.194   2.103   2.055   2.137   2.227   2.109   2.097   2.025   1.966   2.029   2.009   1.928   1.930   1.900   1.869   1.987   1.844   1.890   2.027   2.016   1.932   1.888   1.971   2.040   1.991   2.012   2.093
   114.17    2.025   2.128   2.242   2.188   2.178   2.101   2.068   2.144   2.054   2.058   2.121   2.022   1.957   1.902   1.903   1.994   1.955   1.876   1.923   1.832   1.869   1.809   1.876   1.899   1.969   1.943   1.979   2.021   2.004   2.032   2.034
   109.33    2.005   2.005   2.062   2.140   2.153   2.073   2.130   2.192   2.019   1.990   2.049   1.989   1.963   1.841   1.998   1.954   1.822   1.907   1.858   1.938   1.804   1.868   1.899   1.845   1.805   1.912   2.052   2.029   2.027   2.122   2.034
   104.50    2.088   2.109   2.121   2.109   2.118   1.997   2.102   2.119   2.103   2.038   1.979   1.949   1.859   1.748   1.863   1.914   1.900   1.830   1.902   1.960   1.805   1.786   1.845   1.885   1.844   1.899   1.964   1.897   2.055   2.077   2.031
    99.67    2.030   2.129   2.023   2.032   2.113   2.016   2.031   2.071   2.079   2.035   1.975   1.905   1.859   1.833   1.861   1.919   1.969   1.836   1.862   1.971   1.926   1.764   1.793   1.827   1.817   1.810   1.949   1.903   2.037   2.011   2.007
    94.83    2.010   2.022   1.938   2.004   2.010   1.947   2.003   1.925   2.010   1.943   1.939   1.897   1.899   1.766   1.837   1.881   1.800   1.718   1.766   1.767   1.808   1.848   1.826   1.779   1.712   1.857   1.871   1.825   1.875   1.900   1.966
    90.00    2.026   2.029   2.007   1.946   1.951   1.888   1.884   1.925   1.948   1.886   1.764   1.809   1.786   1.841   1.851   1.841   1.773   1.771   1.746   1.689   1.796   1.785   1.846   1.757   1.747   1.829   1.796   1.862   1.808   1.827   1.780
    85.17    1.877   1.978   1.982   1.978   1.974   1.925   1.845   1.854   1.853   1.844   1.746   1.786   1.816   1.763   1.710   1.817   1.838   1.754   1.736   1.762   1.820   1.830   1.814   1.791   1.750   1.813   1.925   1.925   1.863   1.777   1.846
    80.33    1.995   1.894   2.034   2.015   1.988   1.837   1.818   1.821   1.864   1.903   1.815   1.847   1.844   1.701   1.800   1.952   1.850   1.805   1.764   1.772   1.753   1.671   1.787   1.895   1.864   1.830   1.799   1.882   1.802   1.780   1.744
    75.50    1.902   1.997   1.991   1.907   1.922   1.902   1.896   1.871   1.910   1.811   1.832   1.862   1.842   1.690   1.761   1.861   1.877   1.705   1.776   1.769   1.850   1.737   1.833   1.821   1.852   1.782   1.727   1.683   1.609   1.636   1.514
    70.67    1.862   1.910   1.926   1.922   1.897   1.849   1.834   1.891   1.899   1.925   1.934   1.841   1.857   1.789   1.780   1.764   1.835   1.754   1.663   1.773   1.759   1.813   1.841   1.818   1.719   1.629   1.659   1.686   1.592   1.519   1.533
    65.83    1.949   1.930   1.957   1.931   1.862   1.862   1.824   1.863   1.929   1.968   1.929   1.865   1.830   1.828   1.835   1.756   1.770   1.738   1.776   1.745   1.789   1.784   1.874   1.753   1.715   1.606   1.591   1.585   1.615   1.549   1.595
    61.00    1.930   1.883   1.920   1.917   1.879   1.861   1.860   1.948   1.964   1.915   1.920   1.945   1.782   1.840   1.796   1.747   1.829   1.778   1.882   1.862   1.789   1.781   1.802   1.718   1.703   1.635   1.534   1.473   1.505   1.601   1.627
    56.17    1.889   1.961   1.874   1.780   1.823   1.911   1.968   2.050   1.983   1.849   1.899   1.875   1.740   1.904   1.931   1.800   1.848   1.869   1.868   1.788   1.741   1.741   1.776   1.776   1.799   1.710   1.561   1.551   1.494   1.555   1.540
    51.33    2.056   2.036   1.873   1.822   1.901   2.053   2.090   2.076   2.119   1.945   1.936   1.859   1.812   1.796   1.829   1.814   1.796   1.904   1.855   1.698   1.788   1.656   1.722   1.730   1.757   1.731   1.607   1.563   1.559   1.611   1.563
    46.50    2.073   2.046   2.007   1.942   1.954   1.920   1.996   1.964   1.984   1.975   1.977   1.921   1.850   1.870   1.889   1.974   1.887   2.007   1.915   1.855   1.768   1.599   1.587   1.654   1.769   1.699   1.561   1.565   1.483   1.528   1.517
    41.67    2.051   2.003   1.955   1.998   1.962   1.983   2.034   2.006   1.984   1.888   1.911   1.827   1.826   1.758   1.875   1.936   1.973   2.048   1.925   1.856   1.625   1.568   1.602   1.658   1.661   1.603   1.553   1.551   1.523   1.541   1.527
    36.83    1.926   1.891   1.887   1.979   1.968   2.008   1.904   1.957   1.948   1.981   1.880   1.822   1.873   1.864   1.984   1.978   1.865   1.877   1.821   1.670   1.721   1.718   1.654   1.645   1.657   1.649   1.655   1.606   1.639   1.585   1.609
    32.00    1.831   1.764   1.809   1.887   1.936   1.907   1.786   1.921   1.947   1.919   1.925   1.858   1.923   1.869   1.929   1.824   1.800   1.795   1.883   1.780   1.839   1.720   1.658   1.663   1.702   1.744   1.672   1.618   1.610   1.650   1.695
    27.17    1.853   1.793   1.742   1.787   1.868   1.813   1.738   1.827   1.976   1.984   1.981   2.053   1.995   1.873   1.830   1.797   1.812   1.810   1.906   1.863   1.847   1.783   1.740   1.739   1.669   1.806   1.856   1.677   1.626   1.711   1.792
    22.33    1.878   1.754   1.745   1.867   1.872   1.895   1.935   1.936   1.920   2.011   2.043   2.034   1.972   1.912   1.809   1.895   1.923   1.820   1.861   1.928   1.825   1.792   1.794   1.768   1.783   1.744   1.833   1.811   1.815   1.786   1.845
    17.50    1.949   1.838   1.825   1.854   1.911   1.924   1.911   1.972   2.044   1.961   2.055   2.005   1.897   1.764   1.754   1.775   1.890   1.946   1.953   1.998   1.855   1.834   1.712   1.754   1.724   1.722   1.683   1.746   1.795   1.838   1.802

   Height   Standard deviation at grid points for the v component:
   162.50    1.599   1.599   1.599   1.599   1.599   1.599   1.599   1.599   1.599   1.599   1.599   1.599   1.599   1.599   1.599   1.599   1.599   1.599   1.599   1.599   1.599   1.599   1.599   1.599   1.599   1.599   1.599   1.599   1.599   1.599   1.599
   157.67    1.599   1.599   1.599   1.599   1.599   1.599   1.599   1.599   1.599   1.599   1.599   1.599   1.599   1.599   1.599   1.599   1.599   1.599   1.599   1.599   1.599   1.599   1.599   1.599   1.599   1.599   1.599   1.599   1.599   1.599   1.599
   152.83    1.599   1.599   1.599   1.599   1.599   1.599   1.599   1.599   1.599   1.599   1.599   1.599   1.599   1.599   1.599   1.599   1.599   1.599   1.599   1.599   1.599   1.599   1.599   1.599   1.599   1.599   1.599   1.599   1.599   1.599   1.599
   148.00    1.599   1.599   1.599   1.599   1.599   1.599   1.599   1.599   1.599   1.599   1.599   1.599   1.599   1.599   1.599   1.599   1.599   1.599   1.599   1.599   1.599   1.599   1.599   1.599   1.599   1.599   1.599   1.599   1.599   1.599   1.599
   143.17    1.599   1.599   1.599   1.599   1.599   1.599   1.599   1.599   1.599   1.599   1.599   1.599   1.599   1.599   1.599   1.599   1.599   1.599   1.599   1.599   1.599   1.599   1.599   1.599   1.599   1.599   1.599   1.599   1.599   1.599   1.599
   138.33    1.599   1.599   1.599   1.599   1.599   1.599   1.599   1.599   1.599   1.599   1.599   1.599   1.599   1.599   1.599   1.599   1.599   1.599   1.599   1.599   1.599   1.599   1.599   1.599   1.599   1.599   1.599   1.599   1.599   1.599   1.599
   133.50    1.599   1.599   1.599   1.599   1.599   1.599   1.599   1.599   1.599   1.599   1.599   1.599   1.599   1.599   1.599   1.599   1.599   1.599   1.599   1.599   1.599   1.599   1.599   1.599   1.599   1.599   1.599   1.599   1.599   1.599   1.599
   128.67    1.599   1.599   1.599   1.599   1.599   1.599   1.599   1.599   1.599   1.599   1.599   1.599   1.599   1.599   1.599   1.599   1.599   1.599   1.599   1.599   1.599   1.599   1.599   1.599   1.599   1.599   1.599   1.599   1.599   1.599   1.599
   123.83    1.599   1.599   1.599   1.599   1.599   1.599   1.599   1.599   1.599   1.599   1.599   1.599   1.599   1.599   1.599   1.599   1.599   1.599   1.599   1.599   1.599   1.599   1.599   1.599   1.599   1.599   1.599   1.599   1.599   1.599   1.599
   119.00    1.599   1.599   1.599   1.599   1.599   1.599   1.599   1.599   1.599   1.599   1.599   1.599   1.599   1.599   1.599   1.599   1.599   1.599   1.599   1.599   1.599   1.599   1.599   1.599   1.599   1.599   1.599   1.599   1.599   1.599   1.599
   114.17    1.599   1.599   1.599   1.599   1.599   1.599   1.599   1.599   1.599   1.599   1.599   1.599   1.599   1.599   1.599   1.599   1.599   1.599   1.599   1.599   1.599   1.599   1.599   1.599   1.599   1.599   1.599   1.599   1.599   1.599   1.599
   109.33    1.599   1.599   1.599   1.599   1.599   1.599   1.599   1.599   1.599   1.599   1.599   1.599   1.599   1.599   1.599   1.599   1.599   1.599   1.599   1.599   1.599   1.599   1.599   1.599   1.599   1.599   1.599   1.599   1.599   1.599   1.599
   104.50    1.599   1.599   1.599   1.599   1.599   1.599   1.599   1.599   1.599   1.599   1.599   1.599   1.599   1.599   1.599   1.599   1.599   1.599   1.599   1.599   1.599   1.599   1.599   1.599   1.599   1.599   1.599   1.599   1.599   1.599   1.599
    99.67    1.599   1.599   1.599   1.599   1.599   1.599   1.599   1.599   1.599   1.599   1.599   1.599   1.599   1.599   1.599   1.599   1.599   1.599   1.599   1.599   1.599   1.599   1.599   1.599   1.599   1.599   1.599   1.599   1.599   1.599   1.599
    94.83    1.599   1.599   1.599   1.599   1.599   1.599   1.599   1.599   1.599   1.599   1.599   1.599   1.599   1.599   1.599   1.599   1.599   1.599   1.599   1.599   1.599   1.599   1.599   1.599   1.599   1.599   1.599   1.599   1.599   1.599   1.599
    90.00    1.599   1.599   1.599   1.599   1.599   1.599   1.599   1.599   1.599   1.599   1.599   1.599   1.599   1.599   1.599   1.599   1.599   1.599   1.599   1.599   1.599   1.599   1.599   1.599   1.599   1.599   1.599   1.599   1.599   1.599   1.599
    85.17    1.599   1.599   1.599   1.599   1.599   1.599   1.599   1.599   1.599   1.599   1.599   1.599   1.599   1.599   1.599   1.599   1.599   1.599   1.599   1.599   1.599   1.599   1.599   1.599   1.599   1.599   1.599   1.599   1.599   1.599   1.599
    80.33    1.599   1.599   1.599   1.599   1.599   1.599   1.599   1.599   1.599   1.599   1.599   1.599   1.599   1.599   1.599   1.599   1.599   1.599   1.599   1.599   1.599   1.599   1.599   1.599   1.599   1.599   1.599   1.599   1.599   1.599   1.599
    75.50    1.599   1.599   1.599   1.599   1.599   1.599   1.599   1.599   1.599   1.599   1.599   1.599   1.599   1.599   1.599   1.599   1.599   1.599   1.599   1.599   1.599   1.599   1.599   1.599   1.599   1.599   1.599   1.599   1.599   1.599   1.599
    70.67    1.599   1.599   1.599   1.599   1.599   1.599   1.599   1.599   1.599   1.599   1.599   1.599   1.599   1.599   1.599   1.599   1.599   1.599   1.599   1.599   1.599   1.599   1.599   1.599   1.599   1.599   1.599   1.599   1.599   1.599   1.599
    65.83    1.599   1.599   1.599   1.599   1.599   1.599   1.599   1.599   1.599   1.599   1.599   1.599   1.599   1.599   1.599   1.599   1.599   1.599   1.599   1.599   1.599   1.599   1.599   1.599   1.599   1.599   1.599   1.599   1.599   1.599   1.599
    61.00    1.599   1.599   1.599   1.599   1.599   1.599   1.599   1.599   1.599   1.599   1.599   1.599   1.599   1.599   1.599   1.599   1.599   1.599   1.599   1.599   1.599   1.599   1.599   1.599   1.599   1.599   1.599   1.599   1.599   1.599   1.599
    56.17    1.599   1.599   1.599   1.599   1.599   1.599   1.599   1.599   1.599   1.599   1.599   1.599   1.599   1.599   1.599   1.599   1.599   1.599   1.599   1.599   1.599   1.599   1.599   1.599   1.599   1.599   1.599   1.599   1.599   1.599   1.599
    51.33    1.599   1.599   1.599   1.599   1.599   1.599   1.599   1.599   1.599   1.599   1.599   1.599   1.599   1.599   1.599   1.599   1.599   1.599   1.599   1.599   1.599   1.599   1.599   1.599   1.599   1.599   1.599   1.599   1.599   1.599   1.599
    46.50    1.599   1.599   1.599   1.599   1.599   1.599   1.599   1.599   1.599   1.599   1.599   1.599   1.599   1.599   1.599   1.599   1.599   1.599   1.599   1.599   1.599   1.599   1.599   1.599   1.599   1.599   1.599   1.599   1.599   1.599   1.599
    41.67    1.599   1.599   1.599   1.599   1.599   1.599   1.599   1.599   1.599   1.599   1.599   1.599   1.599   1.599   1.599   1.599   1.599   1.599   1.599   1.599   1.599   1.599   1.599   1.599   1.599   1.599   1.599   1.599   1.599   1.599   1.599
    36.83    1.599   1.599   1.599   1.599   1.599   1.599   1.599   1.599   1.599   1.599   1.599   1.599   1.599   1.599   1.599   1.599   1.599   1.599   1.599   1.599   1.599   1.599   1.599   1.599   1.599   1.599   1.599   1.599   1.599   1.599   1.599
    32.00    1.599   1.599   1.599   1.599   1.599   1.599   1.599   1.599   1.599   1.599   1.599   1.599   1.599   1.599   1.599   1.599   1.599   1.599   1.599   1.599   1.599   1.599   1.599   1.599   1.599   1.599   1.599   1.599   1.599   1.599   1.599
    27.17    1.599   1.599   1.599   1.599   1.599   1.599   1.599   1.599   1.599   1.599   1.599   1.599   1.599   1.599   1.599   1.599   1.599   1.599   1.599   1.599   1.599   1.599   1.599   1.599   1.599   1.599   1.599   1.599   1.599   1.599   1.599
    22.33    1.599   1.599   1.599   1.599   1.599   1.599   1.599   1.599   1.599   1.599   1.599   1.599   1.599   1.599   1.599   1.599   1.599   1.599   1.599   1.599   1.599   1.599   1.599   1.599   1.599   1.599   1.599   1.599   1.599   1.599   1.599
    17.50    1.599   1.599   1.599   1.599   1.599   1.599   1.599   1.599   1.599   1.599   1.599   1.599   1.599   1.599   1.599   1.599   1.599   1.599   1.599   1.599   1.599   1.599   1.599   1.599   1.599   1.599   1.599   1.599   1.599   1.599   1.599

   Height   Standard deviation at grid points for the w component:
   162.50    0.999   0.999   0.999   0.999   0.999   0.999   0.999   0.999   0.999   0.999   0.999   0.999   0.999   0.999   0.999   0.999   0.999   0.999   0.999   0.999   0.999   0.999   0.999   0.999   0.999   0.999   0.999   0.999   0.999   0.999   0.999
   157.67    0.999   0.999   0.999   0.999   0.999   0.999   0.999   0.999   0.999   0.999   0.999   0.999   0.999   0.999   0.999   0.999   0.999   0.999   0.999   0.999   0.999   0.999   0.999   0.999   0.999   0.999   0.999   0.999   0.999   0.999   0.999
   152.83    0.999   0.999   0.999   0.999   0.999   0.999   0.999   0.999   0.999   0.999   0.999   0.999   0.999   0.999   0.999   0.999   0.999   0.999   0.999   0.999   0.999   0.999   0.999   0.999   0.999   0.999   0.999   0.999   0.999   0.999   0.999
   148.00    0.999   0.999   0.999   0.999   0.999   0.999   0.999   0.999   0.999   0.999   0.999   0.999   0.999   0.999   0.999   0.999   0.999   0.999   0.999   0.999   0.999   0.999   0.999   0.999   0.999   0.999   0.999   0.999   0.999   0.999   0.999
   143.17    0.999   0.999   0.999   0.999   0.999   0.999   0.999   0.999   0.999   0.999   0.999   0.999   0.999   0.999   0.999   0.999   0.999   0.999   0.999   0.999   0.999   0.999   0.999   0.999   0.999   0.999   0.999   0.999   0.999   0.999   0.999
   138.33    0.999   0.999   0.999   0.999   0.999   0.999   0.999   0.999   0.999   0.999   0.999   0.999   0.999   0.999   0.999   0.999   0.999   0.999   0.999   0.999   0.999   0.999   0.999   0.999   0.999   0.999   0.999   0.999   0.999   0.999   0.999
   133.50    0.999   0.999   0.999   0.999   0.999   0.999   0.999   0.999   0.999   0.999   0.999   0.999   0.999   0.999   0.999   0.999   0.999   0.999   0.999   0.999   0.999   0.999   0.999   0.999   0.999   0.999   0.999   0.999   0.999   0.999   0.999
   128.67    0.999   0.999   0.999   0.999   0.999   0.999   0.999   0.999   0.999   0.999   0.999   0.999   0.999   0.999   0.999   0.999   0.999   0.999   0.999   0.999   0.999   0.999   0.999   0.999   0.999   0.999   0.999   0.999   0.999   0.999   0.999
   123.83    0.999   0.999   0.999   0.999   0.999   0.999   0.999   0.999   0.999   0.999   0.999   0.999   0.999   0.999   0.999   0.999   0.999   0.999   0.999   0.999   0.999   0.999   0.999   0.999   0.999   0.999   0.999   0.999   0.999   0.999   0.999
   119.00    0.999   0.999   0.999   0.999   0.999   0.999   0.999   0.999   0.999   0.999   0.999   0.999   0.999   0.999   0.999   0.999   0.999   0.999   0.999   0.999   0.999   0.999   0.999   0.999   0.999   0.999   0.999   0.999   0.999   0.999   0.999
   114.17    0.999   0.999   0.999   0.999   0.999   0.999   0.999   0.999   0.999   0.999   0.999   0.999   0.999   0.999   0.999   0.999   0.999   0.999   0.999   0.999   0.999   0.999   0.999   0.999   0.999   0.999   0.999   0.999   0.999   0.999   0.999
   109.33    0.999   0.999   0.999   0.999   0.999   0.999   0.999   0.999   0.999   0.999   0.999   0.999   0.999   0.999   0.999   0.999   0.999   0.999   0.999   0.999   0.999   0.999   0.999   0.999   0.999   0.999   0.999   0.999   0.999   0.999   0.999
   104.50    0.999   0.999   0.999   0.999   0.999   0.999   0.999   0.999   0.999   0.999   0.999   0.999   0.999   0.999   0.999   0.999   0.999   0.999   0.999   0.999   0.999   0.999   0.999   0.999   0.999   0.999   0.999   0.999   0.999   0.999   0.999
    99.67    0.999   0.999   0.999   0.999   0.999   0.999   0.999   0.999   0.999   0.999   0.999   0.999   0.999   0.999   0.999   0.999   0.999   0.999   0.999   0.999   0.999   0.999   0.999   0.999   0.999   0.999   0.999   0.999   0.999   0.999   0.999
    94.83    0.999   0.999   0.999   0.999   0.999   0.999   0.999   0.999   0.999   0.999   0.999   0.999   0.999   0.999   0.999   0.999   0.999   0.999   0.999   0.999   0.999   0.999   0.999   0.999   0.999   0.999   0.999   0.999   0.999   0.999   0.999
    90.00    0.999   0.999   0.999   0.999   0.999   0.999   0.999   0.999   0.999   0.999   0.999   0.999   0.999   0.999   0.999   0.999   0.999   0.999   0.999   0.999   0.999   0.999   0.999   0.999   0.999   0.999   0.999   0.999   0.999   0.999   0.999
    85.17    0.999   0.999   0.999   0.999   0.999   0.999   0.999   0.999   0.999   0.999   0.999   0.999   0.999   0.999   0.999   0.999   0.999   0.999   0.999   0.999   0.999   0.999   0.999   0.999   0.999   0.999   0.999   0.999   0.999   0.999   0.999
    80.33    0.999   0.999   0.999   0.999   0.999   0.999   0.999   0.999   0.999   0.999   0.999   0.999   0.999   0.999   0.999   0.999   0.999   0.999   0.999   0.999   0.999   0.999   0.999   0.999   0.999   0.999   0.999   0.999   0.999   0.999   0.999
    75.50    0.999   0.999   0.999   0.999   0.999   0.999   0.999   0.999   0.999   0.999   0.999   0.999   0.999   0.999   0.999   0.999   0.999   0.999   0.999   0.999   0.999   0.999   0.999   0.999   0.999   0.999   0.999   0.999   0.999   0.999   0.999
    70.67    0.999   0.999   0.999   0.999   0.999   0.999   0.999   0.999   0.999   0.999   0.999   0.999   0.999   0.999   0.999   0.999   0.999   0.999   0.999   0.999   0.999   0.999   0.999   0.999   0.999   0.999   0.999   0.999   0.999   0.999   0.999
    65.83    0.999   0.999   0.999   0.999   0.999   0.999   0.999   0.999   0.999   0.999   0.999   0.999   0.999   0.999   0.999   0.999   0.999   0.999   0.999   0.999   0.999   0.999   0.999   0.999   0.999   0.999   0.999   0.999   0.999   0.999   0.999
    61.00    0.999   0.999   0.999   0.999   0.999   0.999   0.999   0.999   0.999   0.999   0.999   0.999   0.999   0.999   0.999   0.999   0.999   0.999   0.999   0.999   0.999   0.999   0.999   0.999   0.999   0.999   0.999   0.999   0.999   0.999   0.999
    56.17    0.999   0.999   0.999   0.999   0.999   0.999   0.999   0.999   0.999   0.999   0.999   0.999   0.999   0.999   0.999   0.999   0.999   0.999   0.999   0.999   0.999   0.999   0.999   0.999   0.999   0.999   0.999   0.999   0.999   0.999   0.999
    51.33    0.999   0.999   0.999   0.999   0.999   0.999   0.999   0.999   0.999   0.999   0.999   0.999   0.999   0.999   0.999   0.999   0.999   0.999   0.999   0.999   0.999   0.999   0.999   0.999   0.999   0.999   0.999   0.999   0.999   0.999   0.999
    46.50    0.999   0.999   0.999   0.999   0.999   0.999   0.999   0.999   0.999   0.999   0.999   0.999   0.999   0.999   0.999   0.999   0.999   0.999   0.999   0.999   0.999   0.999   0.999   0.999   0.999   0.999   0.999   0.999   0.999   0.999   0.999
    41.67    0.999   0.999   0.999   0.999   0.999   0.999   0.999   0.999   0.999   0.999   0.999   0.999   0.999   0.999   0.999   0.999   0.999   0.999   0.999   0.999   0.999   0.999   0.999   0.999   0.999   0.999   0.999   0.999   0.999   0.999   0.999
    36.83    0.999   0.999   0.999   0.999   0.999   0.999   0.999   0.999   0.999   0.999   0.999   0.999   0.999   0.999   0.999   0.999   0.999   0.999   0.999   0.999   0.999   0.999   0.999   0.999   0.999   0.999   0.999   0.999   0.999   0.999   0.999
    32.00    0.999   0.999   0.999   0.999   0.999   0.999   0.999   0.999   0.999   0.999   0.999   0.999   0.999   0.999   0.999   0.999   0.999   0.999   0.999   0.999   0.999   0.999   0.999   0.999   0.999   0.999   0.999   0.999   0.999   0.999   0.999
    27.17    0.999   0.999   0.999   0.999   0.999   0.999   0.999   0.999   0.999   0.999   0.999   0.999   0.999   0.999   0.999   0.999   0.999   0.999   0.999   0.999   0.999   0.999   0.999   0.999   0.999   0.999   0.999   0.999   0.999   0.999   0.999
    22.33    0.999   0.999   0.999   0.999   0.999   0.999   0.999   0.999   0.999   0.999   0.999   0.999   0.999   0.999   0.999   0.999   0.999   0.999   0.999   0.999   0.999   0.999   0.999   0.999   0.999   0.999   0.999   0.999   0.999   0.999   0.999
    17.50    0.999   0.999   0.999   0.999   0.999   0.999   0.999   0.999   0.999   0.999   0.999   0.999   0.999   0.999   0.999   0.999   0.999   0.999   0.999   0.999   0.999   0.999   0.999   0.999   0.999   0.999   0.999   0.999   0.999   0.999   0.999

   Mean standard deviation across all grid points:
      u component:    1.916 m/s
      v component:    1.599 m/s
      w component:    0.999 m/s


U-component (X) statistics from the interpolated hub point:

   Mean =  12.0000 m/s
   TI   =  15.3379 %


Normalizing Parameters for Binary Data (approximate statistics):

   UBar  =  12.0000 m/s
   TI(u) =  15.3379 %
   TI(v) =  13.3247 %
   TI(w) =   8.3252 %

   Height Offset =   0.0000 m
   Grid Base     =  17.5000 m

Creating a PERIODIC output file.


Processing complete.  19922 CPU seconds used.
